Version 4
SHEET 1 1236 2596
WIRE 16 112 -16 112
WIRE 336 112 288 112
WIRE 448 112 336 112
WIRE 528 112 448 112
WIRE 640 112 608 112
WIRE 768 112 704 112
WIRE 880 112 768 112
WIRE 928 112 880 112
WIRE 1152 112 1136 112
WIRE -16 128 -16 112
WIRE 336 128 336 112
WIRE 448 128 448 112
WIRE 768 128 768 112
WIRE 880 128 880 112
WIRE 1152 128 1152 112
WIRE -16 224 -16 208
WIRE 336 224 336 192
WIRE 448 224 448 208
WIRE 768 224 768 192
WIRE 880 224 880 208
WIRE 1152 224 1152 208
WIRE 16 448 -16 448
WIRE 336 448 288 448
WIRE 448 448 336 448
WIRE 528 448 448 448
WIRE 640 448 608 448
WIRE 768 448 704 448
WIRE 880 448 768 448
WIRE 928 448 880 448
WIRE 1152 448 1136 448
WIRE -16 464 -16 448
WIRE 336 464 336 448
WIRE 448 464 448 448
WIRE 768 464 768 448
WIRE 880 464 880 448
WIRE 1152 464 1152 448
WIRE -16 560 -16 544
WIRE 336 560 336 528
WIRE 448 560 448 544
WIRE 768 560 768 528
WIRE 880 560 880 544
WIRE 1152 560 1152 544
WIRE 16 784 -16 784
WIRE 336 784 288 784
WIRE 448 784 336 784
WIRE 528 784 448 784
WIRE 640 784 608 784
WIRE 768 784 704 784
WIRE 880 784 768 784
WIRE 928 784 880 784
WIRE 1152 784 1136 784
WIRE -16 800 -16 784
WIRE 336 800 336 784
WIRE 448 800 448 784
WIRE 768 800 768 784
WIRE 880 800 880 784
WIRE 1152 800 1152 784
WIRE -16 896 -16 880
WIRE 336 896 336 864
WIRE 448 896 448 880
WIRE 768 896 768 864
WIRE 880 896 880 880
WIRE 1152 896 1152 880
WIRE 16 1120 -16 1120
WIRE 336 1120 288 1120
WIRE 448 1120 336 1120
WIRE 528 1120 448 1120
WIRE 640 1120 608 1120
WIRE 768 1120 704 1120
WIRE 880 1120 768 1120
WIRE 928 1120 880 1120
WIRE 1152 1120 1136 1120
WIRE -16 1136 -16 1120
WIRE 336 1136 336 1120
WIRE 448 1136 448 1120
WIRE 768 1136 768 1120
WIRE 880 1136 880 1120
WIRE 1152 1136 1152 1120
WIRE -16 1232 -16 1216
WIRE 336 1232 336 1200
WIRE 448 1232 448 1216
WIRE 768 1232 768 1200
WIRE 880 1232 880 1216
WIRE 1152 1232 1152 1216
WIRE 16 1456 -16 1456
WIRE 336 1456 288 1456
WIRE 448 1456 336 1456
WIRE 528 1456 448 1456
WIRE 640 1456 608 1456
WIRE 768 1456 704 1456
WIRE 880 1456 768 1456
WIRE 928 1456 880 1456
WIRE 1152 1456 1136 1456
WIRE -16 1472 -16 1456
WIRE 336 1472 336 1456
WIRE 448 1472 448 1456
WIRE 768 1472 768 1456
WIRE 880 1472 880 1456
WIRE 1152 1472 1152 1456
WIRE -16 1568 -16 1552
WIRE 336 1568 336 1536
WIRE 448 1568 448 1552
WIRE 768 1568 768 1536
WIRE 880 1568 880 1552
WIRE 1152 1568 1152 1552
WIRE 16 1792 -16 1792
WIRE 336 1792 288 1792
WIRE 448 1792 336 1792
WIRE 528 1792 448 1792
WIRE 640 1792 608 1792
WIRE 768 1792 704 1792
WIRE 880 1792 768 1792
WIRE 928 1792 880 1792
WIRE 1152 1792 1136 1792
WIRE -16 1808 -16 1792
WIRE 336 1808 336 1792
WIRE 448 1808 448 1792
WIRE 768 1808 768 1792
WIRE 880 1808 880 1792
WIRE 1152 1808 1152 1792
WIRE -16 1904 -16 1888
WIRE 336 1904 336 1872
WIRE 448 1904 448 1888
WIRE 768 1904 768 1872
WIRE 880 1904 880 1888
WIRE 1152 1904 1152 1888
WIRE 16 2128 -16 2128
WIRE 336 2128 288 2128
WIRE 448 2128 336 2128
WIRE 528 2128 448 2128
WIRE 640 2128 608 2128
WIRE 768 2128 704 2128
WIRE 880 2128 768 2128
WIRE 928 2128 880 2128
WIRE 1152 2128 1136 2128
WIRE -16 2144 -16 2128
WIRE 336 2144 336 2128
WIRE 448 2144 448 2128
WIRE 768 2144 768 2128
WIRE 880 2144 880 2128
WIRE 1152 2144 1152 2128
WIRE -16 2240 -16 2224
WIRE 336 2240 336 2208
WIRE 448 2240 448 2224
WIRE 768 2240 768 2208
WIRE 880 2240 880 2224
WIRE 1152 2240 1152 2224
WIRE 16 2464 -16 2464
WIRE 336 2464 288 2464
WIRE 448 2464 336 2464
WIRE 528 2464 448 2464
WIRE 640 2464 608 2464
WIRE 768 2464 704 2464
WIRE 880 2464 768 2464
WIRE 928 2464 880 2464
WIRE 1152 2464 1136 2464
WIRE -16 2480 -16 2464
WIRE 336 2480 336 2464
WIRE 448 2480 448 2464
WIRE 768 2480 768 2464
WIRE 880 2480 880 2464
WIRE 1152 2480 1152 2464
WIRE -16 2576 -16 2560
WIRE 336 2576 336 2544
WIRE 448 2576 448 2560
WIRE 768 2576 768 2544
WIRE 880 2576 880 2560
WIRE 1152 2576 1152 2560
FLAG -16 224 0
FLAG 448 224 0
FLAG 336 224 0
FLAG 880 224 0
FLAG 768 224 0
FLAG 288 112 INP1
FLAG 16 112 INP1
FLAG 1152 224 0
FLAG 1136 112 OUT1
FLAG 928 112 OUT1
FLAG -16 560 0
FLAG 448 560 0
FLAG 336 560 0
FLAG 880 560 0
FLAG 768 560 0
FLAG 288 448 INP2
FLAG 16 448 INP2
FLAG 1152 560 0
FLAG 1136 448 OUT2
FLAG 928 448 OUT2
FLAG -16 896 0
FLAG 448 896 0
FLAG 336 896 0
FLAG 880 896 0
FLAG 768 896 0
FLAG 288 784 INP3
FLAG 16 784 INP3
FLAG 1152 896 0
FLAG 1136 784 OUT3
FLAG 928 784 OUT3
FLAG -16 1232 0
FLAG 448 1232 0
FLAG 336 1232 0
FLAG 880 1232 0
FLAG 768 1232 0
FLAG 288 1120 INP4
FLAG 16 1120 INP4
FLAG 1152 1232 0
FLAG 1136 1120 OUT4
FLAG 928 1120 OUT4
FLAG -16 1568 0
FLAG 448 1568 0
FLAG 336 1568 0
FLAG 880 1568 0
FLAG 768 1568 0
FLAG 288 1456 INP5
FLAG 16 1456 INP5
FLAG 1152 1568 0
FLAG 1136 1456 OUT5
FLAG 928 1456 OUT5
FLAG -16 1904 0
FLAG 448 1904 0
FLAG 336 1904 0
FLAG 880 1904 0
FLAG 768 1904 0
FLAG 288 1792 INP6
FLAG 16 1792 INP6
FLAG 1152 1904 0
FLAG 1136 1792 OUT6
FLAG 928 1792 OUT6
FLAG -16 2240 0
FLAG 448 2240 0
FLAG 336 2240 0
FLAG 880 2240 0
FLAG 768 2240 0
FLAG 288 2128 INP7
FLAG 16 2128 INP7
FLAG 1152 2240 0
FLAG 1136 2128 OUT7
FLAG 928 2128 OUT7
FLAG -16 2576 0
FLAG 448 2576 0
FLAG 336 2576 0
FLAG 880 2576 0
FLAG 768 2576 0
FLAG 288 2464 INP8
FLAG 16 2464 INP8
FLAG 1152 2576 0
FLAG 1136 2464 OUT8
FLAG 928 2464 OUT8
SYMBOL voltage -16 112 R0
WINDOW 0 38 36 Left 2
WINDOW 123 39 62 Left 2
WINDOW 39 38 87 Left 2
SYMATTR InstName VS1
SYMATTR Value ""
SYMATTR Value2 AC 1
SYMATTR SpiceLine Rser=50
SYMBOL cap 320 128 R0
SYMATTR InstName C1
SYMATTR Value 5.6n
SYMBOL ind 432 112 R0
SYMATTR InstName L1
SYMATTR Value 1.0µ
SYMBOL ind 512 128 R270
WINDOW 0 32 56 VTop 2
WINDOW 3 5 56 VBottom 2
SYMATTR InstName L2
SYMATTR Value 12µ
SYMBOL cap 704 96 R90
WINDOW 0 0 32 VBottom 2
WINDOW 3 32 32 VTop 2
SYMATTR InstName C2
SYMATTR Value 470p
SYMBOL cap 752 128 R0
SYMATTR InstName C3
SYMATTR Value 5.6n
SYMBOL ind 864 112 R0
SYMATTR InstName L3
SYMATTR Value 1.0µ
SYMBOL res 1136 112 R0
SYMATTR InstName RL1
SYMATTR Value 50
SYMBOL voltage -16 448 R0
WINDOW 0 38 36 Left 2
WINDOW 123 39 62 Left 2
WINDOW 39 38 87 Left 2
SYMATTR InstName VS2
SYMATTR Value ""
SYMATTR Value2 AC 1
SYMATTR SpiceLine Rser=50
SYMBOL cap 320 464 R0
SYMATTR InstName C4
SYMATTR Value 3.9n
SYMBOL ind 432 448 R0
SYMATTR InstName L4
SYMATTR Value 680n
SYMBOL ind 512 464 R270
WINDOW 0 32 56 VTop 2
WINDOW 3 5 56 VBottom 2
SYMATTR InstName L5
SYMATTR Value 8.2µ
SYMBOL cap 704 432 R90
WINDOW 0 0 32 VBottom 2
WINDOW 3 32 32 VTop 2
SYMATTR InstName C5
SYMATTR Value 330p
SYMBOL cap 752 464 R0
SYMATTR InstName C6
SYMATTR Value 3.9n
SYMBOL ind 864 448 R0
SYMATTR InstName L6
SYMATTR Value 680n
SYMBOL res 1136 448 R0
SYMATTR InstName RL2
SYMATTR Value 50
SYMBOL voltage -16 784 R0
WINDOW 0 38 36 Left 2
WINDOW 123 39 62 Left 2
WINDOW 39 38 87 Left 2
SYMATTR InstName VS3
SYMATTR Value ""
SYMATTR Value2 AC 1
SYMATTR SpiceLine Rser=50
SYMBOL cap 320 800 R0
SYMATTR InstName C7
SYMATTR Value 3n
SYMBOL ind 432 784 R0
SYMATTR InstName L7
SYMATTR Value 470n
SYMBOL ind 512 800 R270
WINDOW 0 32 56 VTop 2
WINDOW 3 5 56 VBottom 2
SYMATTR InstName L8
SYMATTR Value 5.6µ
SYMBOL cap 704 768 R90
WINDOW 0 0 32 VBottom 2
WINDOW 3 32 32 VTop 2
SYMATTR InstName C8
SYMATTR Value 240p
SYMBOL cap 752 800 R0
SYMATTR InstName C9
SYMATTR Value 3n
SYMBOL ind 864 784 R0
SYMATTR InstName L9
SYMATTR Value 470n
SYMBOL res 1136 784 R0
SYMATTR InstName RL3
SYMATTR Value 50
SYMBOL voltage -16 1120 R0
WINDOW 0 38 36 Left 2
WINDOW 123 39 62 Left 2
WINDOW 39 38 87 Left 2
SYMATTR InstName VS4
SYMATTR Value ""
SYMATTR Value2 AC 1
SYMATTR SpiceLine Rser=50
SYMBOL cap 320 1136 R0
SYMATTR InstName C10
SYMATTR Value 2n
SYMBOL ind 432 1120 R0
SYMATTR InstName L10
SYMATTR Value 330n
SYMBOL ind 512 1136 R270
WINDOW 0 32 56 VTop 2
WINDOW 3 5 56 VBottom 2
SYMATTR InstName L11
SYMATTR Value 3.9µ
SYMBOL cap 704 1104 R90
WINDOW 0 0 32 VBottom 2
WINDOW 3 32 32 VTop 2
SYMATTR InstName C11
SYMATTR Value 180p
SYMBOL cap 752 1136 R0
SYMATTR InstName C12
SYMATTR Value 2n
SYMBOL ind 864 1120 R0
SYMATTR InstName L12
SYMATTR Value 330n
SYMBOL res 1136 1120 R0
SYMATTR InstName RL4
SYMATTR Value 50
SYMBOL voltage -16 1456 R0
WINDOW 0 38 36 Left 2
WINDOW 123 39 62 Left 2
WINDOW 39 38 87 Left 2
SYMATTR InstName VS5
SYMATTR Value ""
SYMATTR Value2 AC 1
SYMATTR SpiceLine Rser=50
SYMBOL cap 320 1472 R0
SYMATTR InstName C13
SYMATTR Value 1.2n
SYMBOL ind 432 1456 R0
SYMATTR InstName L13
SYMATTR Value 270n
SYMBOL ind 512 1472 R270
WINDOW 0 32 56 VTop 2
WINDOW 3 5 56 VBottom 2
SYMATTR InstName L14
SYMATTR Value 2.7µ
SYMBOL cap 704 1440 R90
WINDOW 0 0 32 VBottom 2
WINDOW 3 32 32 VTop 2
SYMATTR InstName C14
SYMATTR Value 120p
SYMBOL cap 752 1472 R0
SYMATTR InstName C15
SYMATTR Value 1.2n
SYMBOL ind 864 1456 R0
SYMATTR InstName L15
SYMATTR Value 270n
SYMBOL res 1136 1456 R0
SYMATTR InstName RL5
SYMATTR Value 50
SYMBOL voltage -16 1792 R0
WINDOW 0 38 36 Left 2
WINDOW 123 39 62 Left 2
WINDOW 39 38 87 Left 2
SYMATTR InstName VS6
SYMATTR Value ""
SYMATTR Value2 AC 1
SYMATTR SpiceLine Rser=50
SYMBOL cap 320 1808 R0
SYMATTR InstName C16
SYMATTR Value 910p
SYMBOL ind 432 1792 R0
SYMATTR InstName L16
SYMATTR Value 180n
SYMBOL ind 512 1808 R270
WINDOW 0 32 56 VTop 2
WINDOW 3 5 56 VBottom 2
SYMATTR InstName L17
SYMATTR Value 1.8µ
SYMBOL cap 704 1776 R90
WINDOW 0 0 32 VBottom 2
WINDOW 3 32 32 VTop 2
SYMATTR InstName C17
SYMATTR Value 91p
SYMBOL cap 752 1808 R0
SYMATTR InstName C18
SYMATTR Value 910p
SYMBOL ind 864 1792 R0
SYMATTR InstName L18
SYMATTR Value 180n
SYMBOL res 1136 1792 R0
SYMATTR InstName RL6
SYMATTR Value 50
SYMBOL voltage -16 2128 R0
WINDOW 0 38 36 Left 2
WINDOW 123 39 62 Left 2
WINDOW 39 38 87 Left 2
SYMATTR InstName VS7
SYMATTR Value ""
SYMATTR Value2 AC 1
SYMATTR SpiceLine Rser=50
SYMBOL cap 320 2144 R0
SYMATTR InstName C19
SYMATTR Value 680p
SYMBOL ind 432 2128 R0
SYMATTR InstName L19
SYMATTR Value 120n
SYMBOL ind 512 2144 R270
WINDOW 0 32 56 VTop 2
WINDOW 3 5 56 VBottom 2
SYMATTR InstName L20
SYMATTR Value 1.5µ
SYMBOL cap 704 2112 R90
WINDOW 0 0 32 VBottom 2
WINDOW 3 32 32 VTop 2
SYMATTR InstName C20
SYMATTR Value 56p
SYMBOL cap 752 2144 R0
SYMATTR InstName C21
SYMATTR Value 680p
SYMBOL ind 864 2128 R0
SYMATTR InstName L21
SYMATTR Value 120n
SYMBOL res 1136 2128 R0
SYMATTR InstName RL7
SYMATTR Value 50
SYMBOL voltage -16 2464 R0
WINDOW 0 38 36 Left 2
WINDOW 123 39 62 Left 2
WINDOW 39 38 87 Left 2
SYMATTR InstName VS8
SYMATTR Value ""
SYMATTR Value2 AC 1
SYMATTR SpiceLine Rser=50
SYMBOL cap 320 2480 R0
SYMATTR InstName C22
SYMATTR Value 510p
SYMBOL ind 432 2464 R0
SYMATTR InstName L22
SYMATTR Value 82n
SYMBOL ind 512 2480 R270
WINDOW 0 32 56 VTop 2
WINDOW 3 5 56 VBottom 2
SYMATTR InstName L23
SYMATTR Value 1µ
SYMBOL cap 704 2448 R90
WINDOW 0 0 32 VBottom 2
WINDOW 3 32 32 VTop 2
SYMATTR InstName C23
SYMATTR Value 39p
SYMBOL cap 752 2480 R0
SYMATTR InstName C24
SYMATTR Value 510p
SYMBOL ind 864 2464 R0
SYMATTR InstName L24
SYMATTR Value 82n
SYMBOL res 1136 2464 R0
SYMATTR InstName RL8
SYMATTR Value 50
TEXT 424 32 Left 3 ;BPF1 1.800 - 2.559 MHz
TEXT -34 0 Left 2 !.ac dec 100 1Meg 50Meg
TEXT 416 376 Left 3 ;BPF2 2.559 - 3.637 MHz
TEXT 416 712 Left 3 ;BPF3 3.637 - 5.170 MHz
TEXT 416 1048 Left 3 ;BPF4 5.170 - 7.348 MHz
TEXT 416 1384 Left 3 ;BPF5 7.348 - 10.445 MHz
TEXT 416 1720 Left 3 ;BPF6 10.445 - 14.848 MHz
TEXT 408 2056 Left 3 ;BPF7 14.848 - 21.105 MHz
TEXT 408 2392 Left 3 ;BPF8 21.105 - 30.000 MHz
LINE Normal 576 32 576 32 2
LINE Normal 576 32 576 32 2
LINE Normal 336 448 336 448 2
LINE Normal 336 448 336 448 2
