Version 4
SHEET 1 1520 904
WIRE -432 -96 -432 -112
WIRE -288 -96 -288 -112
WIRE -432 0 -432 -16
WIRE -288 0 -288 -16
WIRE 112 32 80 32
WIRE 208 32 192 32
WIRE 288 32 272 32
WIRE 336 32 288 32
WIRE 560 32 336 32
WIRE 656 32 560 32
WIRE 80 48 80 32
WIRE 560 112 560 32
WIRE 656 112 656 32
WIRE -720 144 -752 144
WIRE -640 144 -720 144
WIRE -208 144 -640 144
WIRE 288 144 288 32
WIRE 288 144 256 144
WIRE -720 160 -720 144
WIRE -640 160 -640 144
WIRE -16 160 -48 160
WIRE 80 160 80 128
WIRE 80 160 48 160
WIRE 160 160 80 160
WIRE 864 160 736 160
WIRE 80 176 80 160
WIRE 288 176 256 176
WIRE 736 176 736 160
WIRE 864 176 864 160
WIRE 464 224 416 224
WIRE 560 224 560 192
WIRE 560 224 464 224
WIRE 656 224 656 192
WIRE 656 224 560 224
WIRE -640 256 -640 240
WIRE -544 256 -640 256
WIRE -528 256 -544 256
WIRE -432 256 -448 256
WIRE 464 256 464 224
WIRE 560 256 560 224
WIRE 656 256 656 224
WIRE -640 272 -640 256
WIRE -544 272 -544 256
WIRE 80 272 80 256
WIRE 80 272 64 272
WIRE 192 272 80 272
WIRE 288 272 288 176
WIRE 288 272 256 272
WIRE 736 272 736 256
WIRE 864 272 864 256
WIRE 288 288 288 272
WIRE -208 320 -208 144
WIRE -48 320 -48 160
WIRE -432 336 -432 256
WIRE -416 336 -432 336
WIRE -320 336 -336 336
WIRE -240 336 -256 336
WIRE 464 336 464 320
WIRE -720 352 -720 224
WIRE -640 352 -640 336
WIRE -640 352 -720 352
WIRE -544 352 -544 336
WIRE -544 352 -640 352
WIRE -432 352 -432 336
WIRE -32 352 -48 352
WIRE -640 368 -640 352
WIRE -240 384 -240 336
WIRE -208 384 -240 384
WIRE -240 400 -240 384
WIRE 112 400 80 400
WIRE 208 400 192 400
WIRE 288 400 272 400
WIRE 336 400 288 400
WIRE 560 400 560 336
WIRE 560 400 336 400
WIRE 656 400 656 336
WIRE 656 400 560 400
WIRE 80 416 80 400
WIRE -896 448 -896 432
WIRE -560 448 -576 448
WIRE -432 448 -432 432
WIRE -432 448 -496 448
WIRE -304 448 -432 448
WIRE 288 512 288 400
WIRE 288 512 256 512
WIRE -240 528 -240 496
WIRE -208 528 -240 528
WIRE -176 528 -208 528
WIRE -96 528 -112 528
WIRE -48 528 -48 384
WIRE -16 528 -48 528
WIRE 80 528 80 496
WIRE 80 528 48 528
WIRE 160 528 80 528
WIRE -896 544 -896 528
WIRE -240 544 -240 528
WIRE -96 544 -96 528
WIRE 80 544 80 528
WIRE 288 544 256 544
WIRE -240 640 -240 624
WIRE -96 640 -96 624
WIRE -96 640 -240 640
WIRE 80 640 80 624
WIRE 80 640 64 640
WIRE 192 640 80 640
WIRE 288 640 288 544
WIRE 288 640 256 640
WIRE -240 656 -240 640
WIRE 288 656 288 640
FLAG 288 288 0
FLAG 288 656 0
FLAG 64 272 BIAS
FLAG 64 640 BIAS
FLAG -32 352 0
FLAG 416 224 VCC
FLAG 736 272 0
FLAG 464 336 0
FLAG 864 272 0
FLAG 864 160 OUT
FLAG -432 0 0
FLAG -288 0 0
FLAG -432 -112 VCC
FLAG -288 -112 BIAS
FLAG -896 544 0
FLAG 336 32 DH
FLAG 336 400 DL
FLAG -240 656 0
FLAG -640 368 0
FLAG -752 144 VCC
FLAG -240 336 QC
FLAG -208 528 QE
FLAG -576 448 INP
FLAG -896 432 INP
SYMBOL PD85004 208 160 R0
SYMATTR InstName U1
SYMBOL res 64 32 R0
SYMATTR InstName R1
SYMATTR Value 1K
SYMBOL cap 272 16 R90
WINDOW 0 0 32 VBottom 2
WINDOW 3 32 32 VTop 2
SYMATTR InstName C1
SYMATTR Value 0.1µ
SYMBOL res 64 160 R0
SYMATTR InstName R2
SYMATTR Value 1.8K
SYMBOL cap 256 256 R90
WINDOW 0 0 32 VBottom 2
WINDOW 3 32 32 VTop 2
SYMATTR InstName C2
SYMATTR Value 0.1µ
SYMBOL cap 48 144 R90
WINDOW 0 0 32 VBottom 2
WINDOW 3 32 32 VTop 2
SYMATTR InstName C3
SYMATTR Value 0.1µ
SYMBOL PD85004 208 528 R0
SYMATTR InstName U2
SYMBOL res 64 400 R0
SYMATTR InstName R3
SYMATTR Value 1K
SYMBOL cap 272 384 R90
WINDOW 0 0 32 VBottom 2
WINDOW 3 32 32 VTop 2
SYMATTR InstName C4
SYMATTR Value 0.1µ
SYMBOL res 64 528 R0
SYMATTR InstName R4
SYMATTR Value 1.8K
SYMBOL cap 256 624 R90
WINDOW 0 0 32 VBottom 2
WINDOW 3 32 32 VTop 2
SYMATTR InstName C5
SYMATTR Value 0.1µ
SYMBOL cap 48 512 R90
WINDOW 0 0 32 VBottom 2
WINDOW 3 32 32 VTop 2
SYMATTR InstName C6
SYMATTR Value 0.1µ
SYMBOL ind2 752 160 M0
WINDOW 0 1 44 Right 2
WINDOW 3 1 67 Right 2
SYMATTR InstName L5
SYMATTR Value 79.2µ
SYMATTR Type ind
SYMBOL ind2 640 96 R0
WINDOW 0 0 44 Right 2
WINDOW 3 1 69 Right 2
SYMATTR InstName L3
SYMATTR Value 8.8µ
SYMATTR Type ind
SYMBOL ind2 640 240 R0
WINDOW 0 1 44 Right 2
WINDOW 3 1 68 Right 2
SYMATTR InstName L4
SYMATTR Value 8.8µ
SYMATTR Type ind
SYMBOL res 576 96 M0
SYMATTR InstName R5
SYMATTR Value 100
SYMBOL res 576 240 M0
SYMATTR InstName R6
SYMATTR Value 100
SYMBOL cap 480 320 R180
WINDOW 0 24 56 Left 2
WINDOW 3 24 8 Left 2
SYMATTR InstName C7
SYMATTR Value 1µ
SYMBOL res 848 160 R0
SYMATTR InstName RL
SYMATTR Value 50
SYMBOL voltage -288 -112 R0
WINDOW 123 0 0 Left 0
WINDOW 39 24 124 Left 2
SYMATTR SpiceLine Rser=10K
SYMATTR InstName V1
SYMATTR Value {BIA}
SYMBOL voltage -432 -112 R0
WINDOW 123 0 0 Left 0
WINDOW 39 0 0 Left 0
SYMATTR InstName V2
SYMATTR Value 12
SYMBOL voltage -896 432 R0
WINDOW 123 0 0 Left 0
WINDOW 39 24 124 Left 2
WINDOW 3 24 96 Invisible 2
SYMATTR SpiceLine Rser=50
SYMATTR Value SINE(0 {2.83*sqrt(5e-2*pow(10, Ain_dbm/10))} {Fin})
SYMATTR InstName VS
SYMBOL ind 96 48 R270
WINDOW 0 32 56 VTop 2
WINDOW 3 4 69 VBottom 2
SYMATTR InstName L1
SYMATTR Value 1µ
SYMATTR SpiceLine Ipk=80m Rser=0.15 Rpar=870 Cpar=0.989p
SYMBOL CX2047LANL -128 352 R180
SYMATTR InstName X1
SYMBOL npn -304 400 R0
SYMATTR InstName Q1
SYMATTR Value DI_DZT2222A
SYMBOL res -256 528 R0
SYMATTR InstName R7
SYMATTR Value 47
SYMBOL res -112 528 R0
SYMATTR InstName R8
SYMATTR Value 22
SYMBOL cap -112 512 R90
WINDOW 0 0 32 VBottom 2
WINDOW 3 32 32 VTop 2
SYMATTR InstName C8
SYMATTR Value 0.1µ
SYMBOL cap -256 320 R90
WINDOW 0 0 32 VBottom 2
WINDOW 3 32 32 VTop 2
SYMATTR InstName C9
SYMATTR Value 0.1µ
SYMBOL res -416 336 M0
WINDOW 0 38 62 Left 2
WINDOW 3 -6 61 Right 2
SYMATTR InstName R9
SYMATTR Value 160
SYMBOL cap -496 432 R90
WINDOW 0 0 32 VBottom 2
WINDOW 3 32 32 VTop 2
SYMATTR InstName C10
SYMATTR Value 0.1µ
SYMBOL zener -560 336 M180
WINDOW 0 22 1 Left 2
WINDOW 3 -21 -30 Left 2
SYMATTR InstName D1
SYMATTR Value 1N750
SYMATTR Description Diode
SYMATTR Type diode
SYMBOL cap -656 272 R0
SYMATTR InstName C11
SYMATTR Value 1µ
SYMBOL res -656 144 R0
SYMATTR InstName R10
SYMATTR Value 2.2K
SYMBOL cap -736 160 R0
SYMATTR InstName C12
SYMATTR Value 1µ
SYMBOL res -432 240 R90
WINDOW 0 0 56 VBottom 2
WINDOW 3 32 56 VTop 2
SYMATTR InstName R11
SYMATTR Value 15K
SYMBOL res -320 320 R90
WINDOW 0 0 56 VBottom 2
WINDOW 3 32 56 VTop 2
SYMATTR InstName R12
SYMATTR Value 4.7
SYMBOL ind 96 416 R270
WINDOW 0 32 56 VTop 2
WINDOW 3 4 69 VBottom 2
SYMATTR InstName L2
SYMATTR Value 1µ
SYMATTR SpiceLine Ipk=80m Rser=0.15 Rpar=870 Cpar=0.989p
TEXT 696 312 VLeft 2 !K2 L3 L4 L5 1
TEXT -440 72 Left 2 !.step param BIA 3.2 3.8 0.1
TEXT -912 720 Left 2 !.tran 0 10u 0 1n
TEXT -440 104 Left 2 ;.param BIA=3.72
TEXT -368 752 Left 2 ;Original PA implementation:\nhttps://www.qsl.net/in3otd/ham_radio/PD85004_PP_PA_II/PD85004_PP_PA_II.html\nPD85004 spice model:\nhttps://pdl.designspark.com/api/v1/manufacturers/53f31a719b4759f8698bcb81/part/57a9e61836414d3a5793abaa/58b03d918759c5ba698b6324/1.zip
TEXT -912 768 Left 2 !.meas Pout rms V(out)*I(Rl)\n.meas PU1 rms V(dh)*Ix(U1:D)\n.meas PQ rms V(QC,QE)*Ic(Q1)
TEXT 688 360 Left 2 ;BN43-202\npri. 2+2 turns\nsec. 6 turns\nenameled wire 0.4mm
TEXT -168 264 Left 2 ;10dBm
TEXT 32 -24 Left 2 ;MLF2012A1R0
TEXT 32 344 Left 2 ;MLF2012A1R0
TEXT 352 568 Left 2 !*SRC=DZT2222A;DI_DZT2222A;BJTs NPN; Si;  40.0V  0.600A  410MHz\n\n.MODEL DI_DZT2222A  NPN (IS=9.69f NF=1.00 BF=272 VAF=114\n\n+ IKF=0.493 ISE=11.7f NE=2.00 BR=4.00 NR=1.00\n\n+ VAR=24.0 IKR=0.750 RE=0.253 RB=1.01 RC=0.101\n\n+ XTB=1.5 CJE=29.0p VJE=1.10 MJE=0.500 CJC=14.7p VJC=0.300\n\n+ MJC=0.300 TF=362p TR=60.3n EG=1.12 )
TEXT -912 600 Left 2 !.param Fin 10Meg
TEXT -912 624 Left 2 ;.step dec param Fin 1.8Meg 30Meg 3
TEXT -912 672 Left 2 !.param Ain_dbm=3
