*----------------------------------------------------------------------
* SPICE Model generated by Murata Manufacturing Co., Ltd.
* Copyright(C) Murata Manufacturing Co., Ltd.
* MURATA P/N : LQW32FT470M0H
* Property : L = 47000[nH]
*----------------------------------------------------------------------
* Applicable Conditions:
*   Frequency Range = 1MHz - 20GHz
*   Temperature = 25 degC
*   DC Bias Current = 0 A
*   Small Signal Operation
*----------------------------------------------------------------------
.SUBCKT LQW32FT470M0H port1 port2
C1 port1 port2 6.98e-14
L2 port1 1 4.19e-5
R2 1 port2 8.00e-1
R3 port1 port2 3.77e+4
L4 port1 2 5.67e-4
R4 2 port2 1.79e+4
L5 port1 3 1.90e-4
R5 3 port2 3.36e+4
L6 port1 4 6.55e-6
C6 4 5 1.33e-14
R6 5 port2 3.31e+3
L7 port1 6 1.76e-6
C7 6 7 1.03e-14
R7 7 port2 2.00e+3
L8 port1 8 6.98e-8
C8 8 9 4.56e-14
R8 9 port2 213
L9 port1 10 2.48e-8
C9 10 11 3.32e-14
R9 11 port2 176
L10 port1 12 1.94e-8
C10 12 13 2.18e-14
R10 13 port2 174
L11 port1 14 1.42e-8
C11 14 15 1.49e-14
R11 15 port2 47.4
L12 port1 16 7.57e-6
C12 16 17 1.16e-15
R12 17 port2 5.04e+3
L13 port1 18 3.85e-10
C13 18 19 4.13e-14
R13 19 port2 184
.ENDS LQW32FT470M0H
*----------------------------------------------------------------------
