Version 4
SHEET 1 880 996
WIRE -336 128 -432 128
WIRE -16 128 -192 128
WIRE 160 128 64 128
WIRE 480 128 160 128
WIRE 672 128 640 128
WIRE -432 144 -432 128
WIRE 672 144 672 128
WIRE -16 192 -48 192
WIRE 128 192 64 192
WIRE 160 192 160 128
WIRE 192 192 160 192
WIRE 336 192 272 192
WIRE 128 208 128 192
WIRE 336 208 336 192
WIRE -432 240 -432 224
WIRE 672 240 672 224
WIRE -112 256 -192 256
WIRE -48 256 -48 192
WIRE -48 256 -112 256
WIRE 192 256 -48 256
WIRE 352 256 272 256
WIRE 480 256 352 256
WIRE -112 272 -112 256
WIRE 352 272 352 256
WIRE -112 368 -112 352
WIRE 352 368 352 352
WIRE -496 448 -544 448
WIRE -384 448 -496 448
WIRE -288 448 -384 448
WIRE -96 448 -224 448
WIRE -496 480 -496 448
WIRE -384 480 -384 448
WIRE -384 560 -384 544
WIRE -496 656 -496 544
WIRE -384 656 -384 640
WIRE -496 736 -544 736
WIRE -384 736 -496 736
WIRE -288 736 -384 736
WIRE -96 736 -224 736
WIRE -496 768 -496 736
WIRE -384 768 -384 736
WIRE -384 848 -384 832
WIRE -496 944 -496 832
WIRE -384 944 -384 928
FLAG 336 208 0
FLAG 128 208 0
FLAG -192 128 IN
FLAG 480 128 OUT
FLAG 480 256 VR
FLAG -192 256 VF
FLAG -432 240 0
FLAG -336 128 IN
FLAG 672 240 0
FLAG 640 128 OUT
FLAG -112 368 0
FLAG 352 368 0
FLAG -544 448 F-ADC
FLAG -384 656 0
FLAG -496 656 0
FLAG -96 448 VF
FLAG -544 736 R-ADC
FLAG -384 944 0
FLAG -496 944 0
FLAG -96 736 VR
SYMBOL ind2 80 112 R90
WINDOW 0 -9 71 VRight 2
WINDOW 3 -8 42 VLeft 2
SYMATTR InstName L1
SYMATTR Value 0.55µ
SYMATTR Type ind
SYMBOL ind2 80 208 M270
WINDOW 0 -8 69 VRight 2
WINDOW 3 -8 43 VLeft 2
SYMATTR InstName L2
SYMATTR Value 55µ
SYMATTR Type ind
SYMBOL ind2 288 272 M270
WINDOW 0 -9 69 VRight 2
WINDOW 3 -8 43 VLeft 2
SYMATTR InstName L3
SYMATTR Value 0.55µ
SYMATTR Type ind
SYMBOL ind2 288 176 R90
WINDOW 0 -7 69 VRight 2
WINDOW 3 -7 45 VLeft 2
SYMATTR InstName L4
SYMATTR Value 55µ
SYMATTR Type ind
SYMBOL voltage -432 128 R0
WINDOW 0 40 40 Left 2
WINDOW 3 39 66 Invisible 2
WINDOW 123 39 120 Left 2
WINDOW 39 39 92 Left 2
SYMATTR InstName VS
SYMATTR Value SINE(0 {2*sqrt(2*Pin*50)} {Fin})
SYMATTR Value2 AC 1
SYMATTR SpiceLine Rser=50
SYMBOL res 656 128 R0
SYMATTR InstName RL
SYMATTR Value 50
SYMBOL res -128 256 R0
SYMATTR InstName R1
SYMATTR Value 51
SYMBOL res 336 256 R0
SYMATTR InstName R2
SYMATTR Value 51
SYMBOL res -400 544 R0
SYMATTR InstName R3
SYMATTR Value 10K
SYMBOL schottky -224 464 M270
WINDOW 0 32 32 VTop 2
WINDOW 3 -18 78 VLeft 2
SYMATTR InstName D1
SYMATTR Value BAT54
SYMATTR Description Diode
SYMATTR Type diode
SYMBOL cap -512 480 R0
SYMATTR InstName C1
SYMATTR Value 0.1µ
SYMBOL schottky -368 480 M0
WINDOW 0 -12 36 Right 2
WINDOW 3 -13 62 Right 2
SYMATTR InstName D3
SYMATTR Value BAT54
SYMATTR Description Diode
SYMATTR Type diode
SYMBOL res -400 832 R0
SYMATTR InstName R4
SYMATTR Value 10K
SYMBOL schottky -224 752 M270
WINDOW 0 32 32 VTop 2
WINDOW 3 -18 78 VLeft 2
SYMATTR InstName D2
SYMATTR Value BAT54
SYMATTR Description Diode
SYMATTR Type diode
SYMBOL cap -512 768 R0
SYMATTR InstName C2
SYMATTR Value 0.1µ
SYMBOL schottky -368 768 M0
WINDOW 0 -12 36 Right 2
WINDOW 3 -13 62 Right 2
SYMATTR InstName D4
SYMATTR Value BAT54
SYMATTR Description Diode
SYMATTR Type diode
TEXT 48 624 Left 2 !.tran 0 400u 300u
TEXT 48 672 Left 2 ;See: https://www.youtube.com/watch?v=byF1FLdbUiA\nVf=VF/N  Vr=VR/N
TEXT -32 160 Left 2 !K1 L1 L2 1
TEXT 168 224 Left 2 !K2 L3 L4 1
TEXT -640 288 Left 2 ;.step dec param Fin 1.8Meg 30Meg 3
TEXT -640 312 Left 2 !.param Fin=10Meg
TEXT -640 376 Left 2 ;.param Pin=2
TEXT -640 352 Left 2 !.step param Pin 2 5 0.5
TEXT 48 448 Left 2 !.meas Aadf avg(V(f-adc))\n.meas Aadr avg(V(r-adc))\n.meas Pf PARAM if(Aadf<0.09,0,1.163*pow(Aadf+0.165,2))\n.meas Pr param if(Aadr<0.09,0,1.163*pow(Aadr+0.165,2))\n.meas SWR param (1+sqrt(Pr/Pf))/(1-sqrt(Pr/Pf))
TEXT -632 48 Left 2 ;each transformer on a half BN-43-202 1:10 Turns
