Version 4
SHEET 1 1420 1132
WIRE -336 128 -432 128
WIRE -16 128 -192 128
WIRE 160 128 64 128
WIRE 480 128 160 128
WIRE 672 128 640 128
WIRE -560 144 -560 128
WIRE -432 144 -432 128
WIRE 672 144 672 128
WIRE -16 192 -48 192
WIRE 128 192 64 192
WIRE 160 192 160 128
WIRE 192 192 160 192
WIRE 336 192 272 192
WIRE 128 208 128 192
WIRE 336 208 336 192
WIRE -560 240 -560 224
WIRE -432 240 -432 224
WIRE 672 240 672 224
WIRE -112 256 -192 256
WIRE -48 256 -48 192
WIRE -48 256 -112 256
WIRE 192 256 -48 256
WIRE 352 256 272 256
WIRE 480 256 352 256
WIRE -112 272 -112 256
WIRE 352 272 352 256
WIRE -112 368 -112 352
WIRE 352 368 352 352
WIRE -576 480 -640 480
WIRE -272 480 -320 480
WIRE -192 480 -272 480
WIRE -112 480 -192 480
WIRE -272 512 -272 480
WIRE -192 512 -192 480
WIRE -576 592 -608 592
WIRE -272 592 -272 576
WIRE -272 592 -320 592
WIRE -192 592 -192 576
WIRE -608 624 -608 592
WIRE -688 704 -752 704
WIRE -576 704 -608 704
WIRE -304 704 -320 704
WIRE -224 704 -240 704
WIRE -576 848 -640 848
WIRE -272 848 -320 848
WIRE -192 848 -272 848
WIRE -112 848 -192 848
WIRE -272 880 -272 848
WIRE -192 880 -192 848
WIRE -576 960 -608 960
WIRE -272 960 -272 944
WIRE -272 960 -320 960
WIRE -192 960 -192 944
WIRE -608 992 -608 960
WIRE -688 1072 -752 1072
WIRE -576 1072 -608 1072
WIRE -304 1072 -320 1072
WIRE -224 1072 -240 1072
FLAG 336 208 0
FLAG 128 208 0
FLAG -192 128 IN
FLAG 480 128 OUT
FLAG 480 256 VR
FLAG -192 256 VF
FLAG -432 240 0
FLAG -336 128 IN
FLAG 672 240 0
FLAG 640 128 OUT
FLAG -112 368 0
FLAG 352 368 0
FLAG -224 704 VF
FLAG -608 624 0
FLAG -640 480 F-ADC
FLAG -112 480 VCC
FLAG -752 704 VCC
FLAG -608 992 0
FLAG -640 848 R-ADC
FLAG -112 848 VCC
FLAG -752 1072 VCC
FLAG -560 240 0
FLAG -560 128 VCC
FLAG -224 1072 VR
FLAG -192 592 0
FLAG -192 960 0
SYMBOL ind2 80 112 R90
WINDOW 0 -9 71 VRight 2
WINDOW 3 -8 42 VLeft 2
SYMATTR InstName L1
SYMATTR Value 0.55µ
SYMATTR Type ind
SYMBOL ind2 80 208 M270
WINDOW 0 -8 69 VRight 2
WINDOW 3 -8 43 VLeft 2
SYMATTR InstName L2
SYMATTR Value 107.8µ
SYMATTR Type ind
SYMBOL ind2 288 272 M270
WINDOW 0 -9 69 VRight 2
WINDOW 3 -8 43 VLeft 2
SYMATTR InstName L3
SYMATTR Value 0.55µ
SYMATTR Type ind
SYMBOL ind2 288 176 R90
WINDOW 0 -7 69 VRight 2
WINDOW 3 -7 45 VLeft 2
SYMATTR InstName L4
SYMATTR Value 107.8µ
SYMATTR Type ind
SYMBOL voltage -432 128 R0
WINDOW 0 40 40 Left 2
WINDOW 3 39 66 Invisible 2
WINDOW 123 39 120 Left 2
WINDOW 39 39 92 Left 2
SYMATTR InstName VS
SYMATTR Value SINE(0 {2*sqrt(2*Pin*50)} {Fin})
SYMATTR SpiceLine Rser=50
SYMBOL res 656 128 R0
SYMATTR InstName RL
SYMATTR Value 50
SYMBOL res -128 256 R0
SYMATTR InstName R1
SYMATTR Value 68
SYMBOL res 336 256 R0
SYMATTR InstName R2
SYMATTR Value 68
SYMBOL SpecialFunctions\\LTC5507 -448 592 M0
SYMATTR InstName U1
SYMBOL cap -240 688 R90
WINDOW 0 0 32 VBottom 2
WINDOW 3 32 32 VTop 2
SYMATTR InstName C3
SYMATTR Value 0.1µ
SYMBOL cap -288 512 R0
SYMATTR InstName C4
SYMATTR Value 0.1µ
SYMBOL res -592 688 R90
WINDOW 0 0 56 VBottom 2
WINDOW 3 32 56 VTop 2
SYMATTR InstName R5
SYMATTR Value 10K
SYMBOL SpecialFunctions\\LTC5507 -448 960 M0
SYMATTR InstName U2
SYMBOL cap -240 1056 R90
WINDOW 0 0 32 VBottom 2
WINDOW 3 32 32 VTop 2
SYMATTR InstName C1
SYMATTR Value 0.1µ
SYMBOL cap -288 880 R0
SYMATTR InstName C2
SYMATTR Value 0.1µ
SYMBOL res -592 1056 R90
WINDOW 0 0 56 VBottom 2
WINDOW 3 32 56 VTop 2
SYMATTR InstName R3
SYMATTR Value 10K
SYMBOL voltage -560 128 R0
WINDOW 123 0 0 Left 0
WINDOW 39 0 0 Left 0
SYMATTR InstName V1
SYMATTR Value 3.3
SYMBOL cap -208 512 R0
SYMATTR InstName C5
SYMATTR Value 0.1µ
SYMBOL cap -208 880 R0
SYMATTR InstName C6
SYMATTR Value 0.1µ
TEXT 0 1000 Left 2 !.tran 0 1m 0.9m
TEXT 0 1048 Left 2 ;See: https://www.youtube.com/watch?v=byF1FLdbUiA\nVf=VF/N  Vr=VR/N
TEXT -32 160 Left 2 !K1 L1 L2 1
TEXT 168 224 Left 2 !K2 L3 L4 1
TEXT -640 288 Left 2 ;.step dec param Fin 1.8Meg 30Meg 3
TEXT -640 312 Left 2 !.param Fin=10Meg
TEXT -640 376 Left 2 ;.param Pin=5
TEXT -640 352 Left 2 !.step param Pin 2 5 0.5
TEXT 0 448 Left 2 !* Values from ADCs\n.meas Aadf avg(V(f-adc))\n.meas Aadr avg(V(r-adc))\n \n* See ../calculations/swr-meter.ods\n.param a2 2.741896\n.param a1 -1.226987\n.param a0 0.117974\n \n* Forvard and revers power\n.meas Pf param uramp(a2*pow(Aadf,2)+a1*Aadf+a0)\n.meas Pr param uramp(a2*pow(Aadr,2)+a1*Aadr+a0)\n \n* SWR\n.meas SWR param (1+sqrt(Pr/Pf))/(1-sqrt(Pr/Pf))
TEXT -632 48 Left 2 ;Each transformer on a half of BN-43-202 1:14 Turns
