Version 4
SHEET 1 5456 1636
WIRE 608 144 608 128
WIRE 656 144 656 112
WIRE 512 192 496 192
WIRE 576 192 512 192
WIRE 736 224 720 224
WIRE 752 224 736 224
WIRE 848 224 832 224
WIRE 864 224 848 224
WIRE 1024 224 944 224
WIRE -912 240 -912 224
WIRE 512 256 512 192
WIRE 512 256 400 256
WIRE 576 256 560 256
WIRE 400 272 400 256
WIRE 736 288 736 224
WIRE 608 320 608 304
WIRE -592 336 -704 336
WIRE 896 352 896 336
WIRE 560 384 560 256
WIRE 736 384 736 368
WIRE 736 384 560 384
WIRE 512 400 512 256
WIRE 736 400 736 384
WIRE 848 400 848 224
WIRE 864 400 848 400
WIRE -656 416 -656 400
WIRE -704 432 -704 336
WIRE -688 432 -704 432
WIRE 400 432 400 352
WIRE 1024 432 1024 224
WIRE 1024 432 1008 432
WIRE 1040 432 1024 432
WIRE 1120 432 1104 432
WIRE -592 448 -592 336
WIRE -592 448 -624 448
WIRE -528 448 -592 448
WIRE -464 448 -528 448
WIRE -912 464 -912 320
WIRE -752 464 -912 464
WIRE -688 464 -752 464
WIRE 864 464 848 464
WIRE -752 480 -752 464
WIRE -528 480 -528 448
WIRE -656 496 -656 480
WIRE 736 496 736 480
WIRE 736 496 560 496
WIRE 736 512 736 496
WIRE 400 528 400 432
WIRE 896 528 896 512
WIRE 944 528 944 512
WIRE -752 576 -752 544
WIRE -528 576 -528 544
WIRE 608 576 608 560
WIRE 400 624 400 608
WIRE 512 624 512 464
WIRE 512 624 400 624
WIRE 560 624 560 496
WIRE 576 624 560 624
WIRE -912 640 -912 464
WIRE -1232 656 -1232 640
WIRE 736 656 736 592
WIRE 736 656 720 656
WIRE 752 656 736 656
WIRE 848 656 848 464
WIRE 848 656 832 656
WIRE 864 656 848 656
WIRE 976 656 944 656
WIRE 512 688 512 624
WIRE 512 688 496 688
WIRE 576 688 512 688
WIRE -144 720 -160 720
WIRE 16 720 0 720
WIRE -912 736 -912 720
WIRE -1232 752 -1232 736
WIRE -144 752 -160 752
WIRE 16 752 0 752
WIRE 608 752 608 736
WIRE 656 752 656 736
WIRE -144 784 -160 784
WIRE 16 784 0 784
WIRE -144 816 -160 816
WIRE 16 816 0 816
WIRE -144 848 -256 848
WIRE 112 848 0 848
WIRE -144 896 -160 896
WIRE 16 896 0 896
WIRE -256 928 -256 848
WIRE -144 928 -160 928
WIRE 16 928 0 928
WIRE 112 928 112 848
WIRE 608 928 608 912
WIRE 656 928 656 896
WIRE -1232 960 -1232 944
WIRE -848 960 -848 944
WIRE 512 976 496 976
WIRE 576 976 512 976
WIRE 736 1008 720 1008
WIRE 752 1008 736 1008
WIRE 848 1008 832 1008
WIRE 864 1008 848 1008
WIRE 1024 1008 944 1008
WIRE 512 1040 512 976
WIRE 512 1040 400 1040
WIRE 576 1040 560 1040
WIRE -1232 1056 -1232 1040
WIRE -848 1056 -848 1040
WIRE 400 1056 400 1040
WIRE 736 1072 736 1008
WIRE 608 1104 608 1088
WIRE -256 1120 -256 1008
WIRE -240 1120 -256 1120
WIRE 16 1120 -160 1120
WIRE 112 1120 112 1008
WIRE 112 1120 96 1120
WIRE 896 1136 896 1120
WIRE 560 1168 560 1040
WIRE 736 1168 736 1152
WIRE 736 1168 560 1168
WIRE -544 1184 -608 1184
WIRE -112 1184 -464 1184
WIRE 48 1184 -32 1184
WIRE 512 1184 512 1040
WIRE 736 1184 736 1168
WIRE 848 1184 848 1008
WIRE 864 1184 848 1184
WIRE 400 1216 400 1136
WIRE 1024 1216 1024 1008
WIRE 1024 1216 1008 1216
WIRE 1040 1216 1024 1216
WIRE 1120 1216 1104 1216
WIRE -1248 1232 -1248 1216
WIRE -1120 1232 -1120 1216
WIRE 864 1248 848 1248
WIRE -608 1264 -608 1184
WIRE 736 1280 736 1264
WIRE 736 1280 560 1280
WIRE 736 1296 736 1280
WIRE 400 1312 400 1216
WIRE 896 1312 896 1296
WIRE 944 1312 944 1296
WIRE -1248 1328 -1248 1312
WIRE -1184 1328 -1248 1328
WIRE -1120 1328 -1120 1312
WIRE -1120 1328 -1184 1328
WIRE -1184 1344 -1184 1328
WIRE 608 1360 608 1344
WIRE -608 1376 -608 1344
WIRE 48 1376 48 1184
WIRE 48 1376 -608 1376
WIRE 400 1408 400 1392
WIRE 512 1408 512 1248
WIRE 512 1408 400 1408
WIRE 560 1408 560 1280
WIRE 576 1408 560 1408
WIRE 736 1440 736 1376
WIRE 736 1440 720 1440
WIRE 752 1440 736 1440
WIRE 848 1440 848 1248
WIRE 848 1440 832 1440
WIRE 864 1440 848 1440
WIRE 960 1440 944 1440
WIRE 512 1472 512 1408
WIRE 512 1472 496 1472
WIRE 576 1472 512 1472
WIRE 608 1536 608 1520
WIRE 656 1536 656 1520
FLAG -1232 752 0
FLAG -1232 640 VCC
FLAG 608 320 VCC
FLAG 608 560 VCC
FLAG 608 752 0
FLAG 608 128 0
FLAG 656 112 VCC
FLAG 656 752 VCC
FLAG 896 336 VCC
FLAG 896 528 0
FLAG 944 528 VCC
FLAG 496 192 INP-000
FLAG 496 688 INP-180
FLAG 1120 432 ADC-I
FLAG 608 1104 VCC
FLAG 608 1344 VCC
FLAG 608 1536 0
FLAG 608 912 0
FLAG 656 896 VCC
FLAG 656 1536 VCC
FLAG 896 1120 VCC
FLAG 896 1312 0
FLAG 944 1312 VCC
FLAG 496 976 INP-090
FLAG 496 1472 INP-270
FLAG 1120 1216 ADC-Q
FLAG -160 720 INP-000
FLAG 16 816 INP-000
FLAG 16 720 INP-180
FLAG -160 816 INP-180
FLAG -160 752 INP-090
FLAG 16 784 INP-090
FLAG -160 784 INP-270
FLAG 16 752 INP-270
FLAG 16 896 0
FLAG 16 928 0
FLAG -160 896 F00
FLAG -160 928 F90
FLAG -1232 1056 0
FLAG -1232 944 F00
FLAG -848 1056 0
FLAG -848 944 F90
FLAG -912 736 0
FLAG -912 224 VCC
FLAG -752 576 0
FLAG -656 496 0
FLAG -656 400 VCC
FLAG -528 576 0
FLAG 976 656 BIAS
FLAG 960 1440 BIAS
FLAG -1184 1344 0
FLAG -1248 1216 ADC-I
FLAG -1120 1216 ADC-Q
FLAG 400 432 BIAS
FLAG 400 1216 BIAS
FLAG -464 448 BIAS
SYMBOL voltage -1232 640 R0
WINDOW 3 34 96 Left 2
WINDOW 123 24 124 Left 2
WINDOW 39 0 0 Left 0
SYMATTR Value 3.3
SYMATTR InstName V1
SYMBOL Opamps\\LTC6228 608 224 M180
SYMATTR InstName U1
SYMBOL Opamps\\LTC6228 608 656 R0
SYMATTR InstName U2
SYMBOL res 720 272 R0
SYMATTR InstName R3
SYMATTR Value 10K
SYMBOL res 720 384 R0
SYMATTR InstName R5
SYMATTR Value 100
SYMBOL res 720 496 R0
SYMATTR InstName R4
SYMATTR Value 10K
SYMBOL res 848 208 R90
WINDOW 0 0 56 VBottom 2
WINDOW 3 32 56 VTop 2
SYMATTR InstName R6
SYMATTR Value 10K
SYMBOL res 848 640 R90
WINDOW 0 0 56 VBottom 2
WINDOW 3 32 56 VTop 2
SYMATTR InstName R8
SYMATTR Value 10K
SYMBOL Opamps\\LTC6228 896 432 R0
SYMATTR InstName U3
SYMBOL res 960 208 R90
WINDOW 0 0 56 VBottom 2
WINDOW 3 32 56 VTop 2
SYMATTR InstName R7
SYMATTR Value 10K
SYMBOL res 960 640 R90
WINDOW 0 0 56 VBottom 2
WINDOW 3 32 56 VTop 2
SYMATTR InstName R9
SYMATTR Value 10K
SYMBOL Opamps\\LTC6228 608 1008 M180
SYMATTR InstName U4
SYMBOL Opamps\\LTC6228 608 1440 R0
SYMATTR InstName U5
SYMBOL res 720 1056 R0
SYMATTR InstName R12
SYMATTR Value 10K
SYMBOL res 720 1168 R0
SYMATTR InstName R14
SYMATTR Value 100
SYMBOL res 720 1280 R0
SYMATTR InstName R13
SYMATTR Value 10K
SYMBOL res 848 992 R90
WINDOW 0 0 56 VBottom 2
WINDOW 3 32 56 VTop 2
SYMATTR InstName R15
SYMATTR Value 10K
SYMBOL res 848 1424 R90
WINDOW 0 0 56 VBottom 2
WINDOW 3 32 56 VTop 2
SYMATTR InstName R17
SYMATTR Value 10K
SYMBOL Opamps\\LTC6228 896 1216 R0
SYMATTR InstName U6
SYMBOL res 960 992 R90
WINDOW 0 0 56 VBottom 2
WINDOW 3 32 56 VTop 2
SYMATTR InstName R16
SYMATTR Value 10K
SYMBOL res 960 1424 R90
WINDOW 0 0 56 VBottom 2
WINDOW 3 32 56 VTop 2
SYMATTR InstName R18
SYMATTR Value 10K
SYMBOL SN74CBT3253C -80 832 R0
SYMATTR InstName X1
SYMBOL cap 496 400 R0
SYMATTR InstName C1
SYMATTR Value 15n
SYMBOL cap 496 1184 R0
SYMATTR InstName C2
SYMATTR Value 15n
SYMBOL voltage -1232 944 R0
WINDOW 3 34 96 Left 2
WINDOW 123 24 124 Left 2
WINDOW 39 0 0 Left 0
SYMATTR Value PULSE(0 3 0 1n 1n 0.5u 1u)
SYMATTR InstName V5
SYMBOL voltage -848 944 R0
WINDOW 3 34 96 Left 2
WINDOW 123 24 124 Left 2
WINDOW 39 0 0 Left 0
SYMATTR Value PULSE(0 3 0.25u 1n 1n 0.5u 1u)
SYMATTR InstName V6
SYMBOL voltage -608 1248 R0
WINDOW 3 34 79 Left 2
WINDOW 123 24 124 Left 2
WINDOW 39 0 0 Left 0
SYMATTR Value SINE(0 1m 999K)
SYMATTR InstName V7
SYMBOL ind2 -144 1104 R90
WINDOW 0 -11 61 VRight 2
WINDOW 3 -11 49 VLeft 2
SYMATTR InstName L1
SYMATTR Value 40µ
SYMATTR Type ind
SYMBOL ind2 112 1104 R90
WINDOW 0 -11 61 VRight 2
WINDOW 3 -11 49 VLeft 2
SYMATTR InstName L2
SYMATTR Value 40µ
SYMATTR Type ind
SYMBOL ind2 -16 1200 M270
WINDOW 0 -9 65 VRight 2
WINDOW 3 -10 48 VLeft 2
SYMATTR InstName L3
SYMATTR Value 40µ
SYMATTR Type ind
SYMBOL res -448 1168 R90
WINDOW 0 0 56 VBottom 2
WINDOW 3 32 56 VTop 2
SYMATTR InstName RI
SYMATTR Value 50
SYMBOL res -240 1024 R180
WINDOW 0 36 76 Left 2
WINDOW 3 36 40 Left 2
SYMATTR InstName R19
SYMATTR Value 100
SYMBOL res 128 1024 R180
WINDOW 0 36 76 Left 2
WINDOW 3 36 40 Left 2
SYMATTR InstName R20
SYMATTR Value 100
SYMBOL res -928 224 R0
SYMATTR InstName R21
SYMATTR Value 10K
SYMBOL res -928 624 R0
SYMATTR InstName R22
SYMATTR Value 10K
SYMBOL cap -768 480 R0
SYMATTR InstName C3
SYMATTR Value 1µ
SYMBOL cap -544 480 R0
SYMATTR InstName C4
SYMATTR Value 1µ
SYMBOL cap 1104 416 R90
WINDOW 0 0 32 VBottom 2
WINDOW 3 32 32 VTop 2
SYMATTR InstName C7
SYMATTR Value 1µ
SYMBOL cap 1104 1200 R90
WINDOW 0 0 32 VBottom 2
WINDOW 3 32 32 VTop 2
SYMATTR InstName C8
SYMATTR Value 1µ
SYMBOL res -1264 1216 R0
SYMATTR InstName RLI
SYMATTR Value 10K
SYMBOL res -1136 1216 R0
SYMATTR InstName RLQ
SYMATTR Value 10K
SYMBOL Opamps\\opamp2 -656 384 R0
SYMATTR InstName U7
SYMATTR Value AD8534
SYMBOL res 384 256 R0
SYMATTR InstName R1
SYMATTR Value 10K
SYMBOL res 384 512 R0
SYMATTR InstName R2
SYMATTR Value 10K
SYMBOL res 384 1040 R0
SYMATTR InstName R10
SYMATTR Value 10K
SYMBOL res 384 1296 R0
SYMATTR InstName R11
SYMATTR Value 10K
TEXT -144 184 Left 2 ;.ac dec 1000 10 1Meg
TEXT -144 208 Left 2 !.tran 10m
TEXT -1240 864 Left 2 ;2 x AD9851 OUT
TEXT 80 1168 Left 2 !K L1 L2 L3 1
TEXT 80 1200 Left 2 ;CX2074NL
TEXT -648 1152 Left 2 ;LNA
TEXT -1096 1136 Left 2 ;WM8731 ADC IN
TEXT -144 160 Left 2 !.include ad8534.cir
RECTANGLE Normal -448 1088 -1280 816 2
RECTANGLE Normal -320 1392 -656 1136 2
RECTANGLE Normal -896 1376 -1280 1120 2
